<?xml version="1.0" encoding="UTF-8"?>

<!-- generated on 2025-06-03 21:48:29 by Eclipse SUMO netconvert Version 1.12.0
<configuration xmlns:xsi="http://www.w3.org/2001/XMLSchema-instance" xsi:noNamespaceSchemaLocation="http://sumo.dlr.de/xsd/netconvertConfiguration.xsd">

    <input>
        <node-files value="grid_nodes.nod.xml"/>
        <edge-files value="grid_edges.edg.xml"/>
    </input>

    <output>
        <output-file value="grid.net.xml"/>
    </output>

    <report>
        <aggregate-warnings value="5"/>
    </report>

</configuration>
-->

<net version="1.9" junctionCornerDetail="5" limitTurnSpeed="5.50" xmlns:xsi="http://www.w3.org/2001/XMLSchema-instance" xsi:noNamespaceSchemaLocation="http://sumo.dlr.de/xsd/net_file.xsd">

    <location netOffset="0.00,0.00" convBoundary="0.00,0.00,300.00,200.00" origBoundary="0.00,0.00,300.00,200.00" projParameter="!"/>

    <edge id=":n_0_0_0" function="internal">
        <lane id=":n_0_0_0_0" index="0" speed="6.08" length="7.74" shape="-1.60,3.20 -1.30,1.10 -0.40,-0.40 1.10,-1.30 3.20,-1.60"/>
    </edge>
    <edge id=":n_0_0_1" function="internal">
        <lane id=":n_0_0_1_0" index="0" speed="3.90" length="2.58" shape="3.20,1.60 2.50,1.70 2.00,2.00 1.70,2.50 1.60,3.20"/>
    </edge>
    <edge id=":n_0_1_0" function="internal">
        <lane id=":n_0_1_0_0" index="0" speed="6.51" length="9.03" shape="98.40,7.20 98.05,4.75 97.00,3.00 95.25,1.95 92.80,1.60"/>
    </edge>
    <edge id=":n_0_1_1" function="internal">
        <lane id=":n_0_1_1_0" index="0" speed="8.00" length="14.19" shape="98.40,7.20 98.95,3.35 100.60,0.60 103.35,-1.05 107.20,-1.60"/>
    </edge>
    <edge id=":n_0_1_2" function="internal">
        <lane id=":n_0_1_2_0" index="0" speed="3.65" length="1.44" shape="98.40,7.20 99.20,6.00"/>
    </edge>
    <edge id=":n_0_1_9" function="internal">
        <lane id=":n_0_1_9_0" index="0" speed="3.65" length="3.23" shape="99.20,6.00 100.00,5.60 100.80,6.00 101.60,7.20"/>
    </edge>
    <edge id=":n_0_1_3" function="internal">
        <lane id=":n_0_1_3_0" index="0" speed="6.51" length="9.03" shape="107.20,1.60 104.75,1.95 103.00,3.00 101.95,4.75 101.60,7.20"/>
    </edge>
    <edge id=":n_0_1_4" function="internal">
        <lane id=":n_0_1_4_0" index="0" speed="13.90" length="14.40" shape="107.20,1.60 92.80,1.60"/>
    </edge>
    <edge id=":n_0_1_5" function="internal">
        <lane id=":n_0_1_5_0" index="0" speed="3.65" length="1.44" shape="107.20,1.60 106.00,0.80"/>
    </edge>
    <edge id=":n_0_1_10" function="internal">
        <lane id=":n_0_1_10_0" index="0" speed="3.65" length="3.23" shape="106.00,0.80 105.60,0.00 106.00,-0.80 107.20,-1.60"/>
    </edge>
    <edge id=":n_0_1_6" function="internal">
        <lane id=":n_0_1_6_0" index="0" speed="13.90" length="14.40" shape="92.80,-1.60 107.20,-1.60"/>
    </edge>
    <edge id=":n_0_1_7" function="internal">
        <lane id=":n_0_1_7_0" index="0" speed="8.00" length="4.07" shape="92.80,-1.60 96.65,-1.05 96.80,-0.96"/>
    </edge>
    <edge id=":n_0_1_8" function="internal">
        <lane id=":n_0_1_8_0" index="0" speed="3.65" length="1.44" shape="92.80,-1.60 94.00,-0.80"/>
    </edge>
    <edge id=":n_0_1_11" function="internal">
        <lane id=":n_0_1_11_0" index="0" speed="8.00" length="10.13" shape="96.80,-0.96 99.40,0.60 101.05,3.35 101.60,7.20"/>
    </edge>
    <edge id=":n_0_1_12" function="internal">
        <lane id=":n_0_1_12_0" index="0" speed="3.65" length="3.23" shape="94.00,-0.80 94.40,0.00 94.00,0.80 92.80,1.60"/>
    </edge>
    <edge id=":n_0_2_0" function="internal">
        <lane id=":n_0_2_0_0" index="0" speed="6.51" length="9.03" shape="198.40,7.20 198.05,4.75 197.00,3.00 195.25,1.95 192.80,1.60"/>
    </edge>
    <edge id=":n_0_2_1" function="internal">
        <lane id=":n_0_2_1_0" index="0" speed="8.00" length="14.19" shape="198.40,7.20 198.95,3.35 200.60,0.60 203.35,-1.05 207.20,-1.60"/>
    </edge>
    <edge id=":n_0_2_2" function="internal">
        <lane id=":n_0_2_2_0" index="0" speed="3.65" length="1.44" shape="198.40,7.20 199.20,6.00"/>
    </edge>
    <edge id=":n_0_2_9" function="internal">
        <lane id=":n_0_2_9_0" index="0" speed="3.65" length="3.23" shape="199.20,6.00 200.00,5.60 200.80,6.00 201.60,7.20"/>
    </edge>
    <edge id=":n_0_2_3" function="internal">
        <lane id=":n_0_2_3_0" index="0" speed="6.51" length="9.03" shape="207.20,1.60 204.75,1.95 203.00,3.00 201.95,4.75 201.60,7.20"/>
    </edge>
    <edge id=":n_0_2_4" function="internal">
        <lane id=":n_0_2_4_0" index="0" speed="13.90" length="14.40" shape="207.20,1.60 192.80,1.60"/>
    </edge>
    <edge id=":n_0_2_5" function="internal">
        <lane id=":n_0_2_5_0" index="0" speed="3.65" length="1.44" shape="207.20,1.60 206.00,0.80"/>
    </edge>
    <edge id=":n_0_2_10" function="internal">
        <lane id=":n_0_2_10_0" index="0" speed="3.65" length="3.23" shape="206.00,0.80 205.60,0.00 206.00,-0.80 207.20,-1.60"/>
    </edge>
    <edge id=":n_0_2_6" function="internal">
        <lane id=":n_0_2_6_0" index="0" speed="13.90" length="14.40" shape="192.80,-1.60 207.20,-1.60"/>
    </edge>
    <edge id=":n_0_2_7" function="internal">
        <lane id=":n_0_2_7_0" index="0" speed="8.00" length="4.07" shape="192.80,-1.60 196.65,-1.05 196.80,-0.96"/>
    </edge>
    <edge id=":n_0_2_8" function="internal">
        <lane id=":n_0_2_8_0" index="0" speed="3.65" length="1.44" shape="192.80,-1.60 194.00,-0.80"/>
    </edge>
    <edge id=":n_0_2_11" function="internal">
        <lane id=":n_0_2_11_0" index="0" speed="8.00" length="10.13" shape="196.80,-0.96 199.40,0.60 201.05,3.35 201.60,7.20"/>
    </edge>
    <edge id=":n_0_2_12" function="internal">
        <lane id=":n_0_2_12_0" index="0" speed="3.65" length="3.23" shape="194.00,-0.80 194.40,0.00 194.00,0.80 192.80,1.60"/>
    </edge>
    <edge id=":n_0_3_0" function="internal">
        <lane id=":n_0_3_0_0" index="0" speed="3.90" length="2.58" shape="298.40,3.20 298.30,2.50 298.00,2.00 297.50,1.70 296.80,1.60"/>
    </edge>
    <edge id=":n_0_3_1" function="internal">
        <lane id=":n_0_3_1_0" index="0" speed="6.08" length="7.74" shape="296.80,-1.60 298.90,-1.30 300.40,-0.40 301.30,1.10 301.60,3.20"/>
    </edge>
    <edge id=":n_1_0_0" function="internal">
        <lane id=":n_1_0_0_0" index="0" speed="13.90" length="14.40" shape="-1.60,107.20 -1.60,92.80"/>
    </edge>
    <edge id=":n_1_0_1" function="internal">
        <lane id=":n_1_0_1_0" index="0" speed="8.00" length="4.07" shape="-1.60,107.20 -1.05,103.35 -0.96,103.20"/>
    </edge>
    <edge id=":n_1_0_2" function="internal">
        <lane id=":n_1_0_2_0" index="0" speed="3.65" length="1.44" shape="-1.60,107.20 -0.80,106.00"/>
    </edge>
    <edge id=":n_1_0_9" function="internal">
        <lane id=":n_1_0_9_0" index="0" speed="8.00" length="10.13" shape="-0.96,103.20 0.60,100.60 3.35,98.95 7.20,98.40"/>
    </edge>
    <edge id=":n_1_0_10" function="internal">
        <lane id=":n_1_0_10_0" index="0" speed="3.65" length="3.23" shape="-0.80,106.00 0.00,105.60 0.80,106.00 1.60,107.20"/>
    </edge>
    <edge id=":n_1_0_3" function="internal">
        <lane id=":n_1_0_3_0" index="0" speed="6.51" length="9.03" shape="7.20,101.60 4.75,101.95 3.00,103.00 1.95,104.75 1.60,107.20"/>
    </edge>
    <edge id=":n_1_0_4" function="internal">
        <lane id=":n_1_0_4_0" index="0" speed="8.00" length="14.19" shape="7.20,101.60 3.35,101.05 0.60,99.40 -1.05,96.65 -1.60,92.80"/>
    </edge>
    <edge id=":n_1_0_5" function="internal">
        <lane id=":n_1_0_5_0" index="0" speed="3.65" length="1.44" shape="7.20,101.60 6.00,100.80"/>
    </edge>
    <edge id=":n_1_0_11" function="internal">
        <lane id=":n_1_0_11_0" index="0" speed="3.65" length="3.23" shape="6.00,100.80 5.60,100.00 6.00,99.20 7.20,98.40"/>
    </edge>
    <edge id=":n_1_0_6" function="internal">
        <lane id=":n_1_0_6_0" index="0" speed="6.51" length="9.03" shape="1.60,92.80 1.95,95.25 3.00,97.00 4.75,98.05 7.20,98.40"/>
    </edge>
    <edge id=":n_1_0_7" function="internal">
        <lane id=":n_1_0_7_0" index="0" speed="13.90" length="14.40" shape="1.60,92.80 1.60,107.20"/>
    </edge>
    <edge id=":n_1_0_8" function="internal">
        <lane id=":n_1_0_8_0" index="0" speed="3.65" length="1.44" shape="1.60,92.80 0.80,94.00"/>
    </edge>
    <edge id=":n_1_0_12" function="internal">
        <lane id=":n_1_0_12_0" index="0" speed="3.65" length="3.23" shape="0.80,94.00 0.00,94.40 -0.80,94.00 -1.60,92.80"/>
    </edge>
    <edge id=":n_1_1_0" function="internal">
        <lane id=":n_1_1_0_0" index="0" speed="6.51" length="9.03" shape="98.40,107.20 98.05,104.75 97.00,103.00 95.25,101.95 92.80,101.60"/>
    </edge>
    <edge id=":n_1_1_1" function="internal">
        <lane id=":n_1_1_1_0" index="0" speed="13.90" length="14.40" shape="98.40,107.20 98.40,92.80"/>
    </edge>
    <edge id=":n_1_1_2" function="internal">
        <lane id=":n_1_1_2_0" index="0" speed="8.00" length="4.07" shape="98.40,107.20 98.95,103.35 99.04,103.20"/>
    </edge>
    <edge id=":n_1_1_3" function="internal">
        <lane id=":n_1_1_3_0" index="0" speed="3.65" length="1.44" shape="98.40,107.20 99.20,106.00"/>
    </edge>
    <edge id=":n_1_1_16" function="internal">
        <lane id=":n_1_1_16_0" index="0" speed="8.00" length="10.13" shape="99.04,103.20 100.60,100.60 103.35,98.95 107.20,98.40"/>
    </edge>
    <edge id=":n_1_1_17" function="internal">
        <lane id=":n_1_1_17_0" index="0" speed="3.65" length="3.23" shape="99.20,106.00 100.00,105.60 100.80,106.00 101.60,107.20"/>
    </edge>
    <edge id=":n_1_1_4" function="internal">
        <lane id=":n_1_1_4_0" index="0" speed="6.51" length="9.03" shape="107.20,101.60 104.75,101.95 103.00,103.00 101.95,104.75 101.60,107.20"/>
    </edge>
    <edge id=":n_1_1_5" function="internal">
        <lane id=":n_1_1_5_0" index="0" speed="13.90" length="14.40" shape="107.20,101.60 92.80,101.60"/>
    </edge>
    <edge id=":n_1_1_6" function="internal">
        <lane id=":n_1_1_6_0" index="0" speed="8.00" length="4.07" shape="107.20,101.60 103.35,101.05 103.20,100.96"/>
    </edge>
    <edge id=":n_1_1_7" function="internal">
        <lane id=":n_1_1_7_0" index="0" speed="3.65" length="1.44" shape="107.20,101.60 106.00,100.80"/>
    </edge>
    <edge id=":n_1_1_18" function="internal">
        <lane id=":n_1_1_18_0" index="0" speed="8.00" length="10.13" shape="103.20,100.96 100.60,99.40 98.95,96.65 98.40,92.80"/>
    </edge>
    <edge id=":n_1_1_19" function="internal">
        <lane id=":n_1_1_19_0" index="0" speed="3.65" length="3.23" shape="106.00,100.80 105.60,100.00 106.00,99.20 107.20,98.40"/>
    </edge>
    <edge id=":n_1_1_8" function="internal">
        <lane id=":n_1_1_8_0" index="0" speed="6.51" length="9.03" shape="101.60,92.80 101.95,95.25 103.00,97.00 104.75,98.05 107.20,98.40"/>
    </edge>
    <edge id=":n_1_1_9" function="internal">
        <lane id=":n_1_1_9_0" index="0" speed="13.90" length="14.40" shape="101.60,92.80 101.60,107.20"/>
    </edge>
    <edge id=":n_1_1_10" function="internal">
        <lane id=":n_1_1_10_0" index="0" speed="8.00" length="4.07" shape="101.60,92.80 101.05,96.65 100.96,96.80"/>
    </edge>
    <edge id=":n_1_1_11" function="internal">
        <lane id=":n_1_1_11_0" index="0" speed="3.65" length="1.44" shape="101.60,92.80 100.80,94.00"/>
    </edge>
    <edge id=":n_1_1_20" function="internal">
        <lane id=":n_1_1_20_0" index="0" speed="8.00" length="10.13" shape="100.96,96.80 99.40,99.40 96.65,101.05 92.80,101.60"/>
    </edge>
    <edge id=":n_1_1_21" function="internal">
        <lane id=":n_1_1_21_0" index="0" speed="3.65" length="3.23" shape="100.80,94.00 100.00,94.40 99.20,94.00 98.40,92.80"/>
    </edge>
    <edge id=":n_1_1_12" function="internal">
        <lane id=":n_1_1_12_0" index="0" speed="6.51" length="9.03" shape="92.80,98.40 95.25,98.05 97.00,97.00 98.05,95.25 98.40,92.80"/>
    </edge>
    <edge id=":n_1_1_13" function="internal">
        <lane id=":n_1_1_13_0" index="0" speed="13.90" length="14.40" shape="92.80,98.40 107.20,98.40"/>
    </edge>
    <edge id=":n_1_1_14" function="internal">
        <lane id=":n_1_1_14_0" index="0" speed="8.00" length="4.07" shape="92.80,98.40 96.65,98.95 96.80,99.04"/>
    </edge>
    <edge id=":n_1_1_15" function="internal">
        <lane id=":n_1_1_15_0" index="0" speed="3.65" length="1.44" shape="92.80,98.40 94.00,99.20"/>
    </edge>
    <edge id=":n_1_1_22" function="internal">
        <lane id=":n_1_1_22_0" index="0" speed="8.00" length="10.13" shape="96.80,99.04 99.40,100.60 101.05,103.35 101.60,107.20"/>
    </edge>
    <edge id=":n_1_1_23" function="internal">
        <lane id=":n_1_1_23_0" index="0" speed="3.65" length="3.23" shape="94.00,99.20 94.40,100.00 94.00,100.80 92.80,101.60"/>
    </edge>
    <edge id=":n_1_2_0" function="internal">
        <lane id=":n_1_2_0_0" index="0" speed="6.51" length="9.03" shape="198.40,107.20 198.05,104.75 197.00,103.00 195.25,101.95 192.80,101.60"/>
    </edge>
    <edge id=":n_1_2_1" function="internal">
        <lane id=":n_1_2_1_0" index="0" speed="13.90" length="14.40" shape="198.40,107.20 198.40,92.80"/>
    </edge>
    <edge id=":n_1_2_2" function="internal">
        <lane id=":n_1_2_2_0" index="0" speed="8.00" length="4.07" shape="198.40,107.20 198.95,103.35 199.04,103.20"/>
    </edge>
    <edge id=":n_1_2_3" function="internal">
        <lane id=":n_1_2_3_0" index="0" speed="3.65" length="1.44" shape="198.40,107.20 199.20,106.00"/>
    </edge>
    <edge id=":n_1_2_16" function="internal">
        <lane id=":n_1_2_16_0" index="0" speed="8.00" length="10.13" shape="199.04,103.20 200.60,100.60 203.35,98.95 207.20,98.40"/>
    </edge>
    <edge id=":n_1_2_17" function="internal">
        <lane id=":n_1_2_17_0" index="0" speed="3.65" length="3.23" shape="199.20,106.00 200.00,105.60 200.80,106.00 201.60,107.20"/>
    </edge>
    <edge id=":n_1_2_4" function="internal">
        <lane id=":n_1_2_4_0" index="0" speed="6.51" length="9.03" shape="207.20,101.60 204.75,101.95 203.00,103.00 201.95,104.75 201.60,107.20"/>
    </edge>
    <edge id=":n_1_2_5" function="internal">
        <lane id=":n_1_2_5_0" index="0" speed="13.90" length="14.40" shape="207.20,101.60 192.80,101.60"/>
    </edge>
    <edge id=":n_1_2_6" function="internal">
        <lane id=":n_1_2_6_0" index="0" speed="8.00" length="4.07" shape="207.20,101.60 203.35,101.05 203.20,100.96"/>
    </edge>
    <edge id=":n_1_2_7" function="internal">
        <lane id=":n_1_2_7_0" index="0" speed="3.65" length="1.44" shape="207.20,101.60 206.00,100.80"/>
    </edge>
    <edge id=":n_1_2_18" function="internal">
        <lane id=":n_1_2_18_0" index="0" speed="8.00" length="10.13" shape="203.20,100.96 200.60,99.40 198.95,96.65 198.40,92.80"/>
    </edge>
    <edge id=":n_1_2_19" function="internal">
        <lane id=":n_1_2_19_0" index="0" speed="3.65" length="3.23" shape="206.00,100.80 205.60,100.00 206.00,99.20 207.20,98.40"/>
    </edge>
    <edge id=":n_1_2_8" function="internal">
        <lane id=":n_1_2_8_0" index="0" speed="6.51" length="9.03" shape="201.60,92.80 201.95,95.25 203.00,97.00 204.75,98.05 207.20,98.40"/>
    </edge>
    <edge id=":n_1_2_9" function="internal">
        <lane id=":n_1_2_9_0" index="0" speed="13.90" length="14.40" shape="201.60,92.80 201.60,107.20"/>
    </edge>
    <edge id=":n_1_2_10" function="internal">
        <lane id=":n_1_2_10_0" index="0" speed="8.00" length="4.07" shape="201.60,92.80 201.05,96.65 200.96,96.80"/>
    </edge>
    <edge id=":n_1_2_11" function="internal">
        <lane id=":n_1_2_11_0" index="0" speed="3.65" length="1.44" shape="201.60,92.80 200.80,94.00"/>
    </edge>
    <edge id=":n_1_2_20" function="internal">
        <lane id=":n_1_2_20_0" index="0" speed="8.00" length="10.13" shape="200.96,96.80 199.40,99.40 196.65,101.05 192.80,101.60"/>
    </edge>
    <edge id=":n_1_2_21" function="internal">
        <lane id=":n_1_2_21_0" index="0" speed="3.65" length="3.23" shape="200.80,94.00 200.00,94.40 199.20,94.00 198.40,92.80"/>
    </edge>
    <edge id=":n_1_2_12" function="internal">
        <lane id=":n_1_2_12_0" index="0" speed="6.51" length="9.03" shape="192.80,98.40 195.25,98.05 197.00,97.00 198.05,95.25 198.40,92.80"/>
    </edge>
    <edge id=":n_1_2_13" function="internal">
        <lane id=":n_1_2_13_0" index="0" speed="13.90" length="14.40" shape="192.80,98.40 207.20,98.40"/>
    </edge>
    <edge id=":n_1_2_14" function="internal">
        <lane id=":n_1_2_14_0" index="0" speed="8.00" length="4.07" shape="192.80,98.40 196.65,98.95 196.80,99.04"/>
    </edge>
    <edge id=":n_1_2_15" function="internal">
        <lane id=":n_1_2_15_0" index="0" speed="3.65" length="1.44" shape="192.80,98.40 194.00,99.20"/>
    </edge>
    <edge id=":n_1_2_22" function="internal">
        <lane id=":n_1_2_22_0" index="0" speed="8.00" length="10.13" shape="196.80,99.04 199.40,100.60 201.05,103.35 201.60,107.20"/>
    </edge>
    <edge id=":n_1_2_23" function="internal">
        <lane id=":n_1_2_23_0" index="0" speed="3.65" length="3.23" shape="194.00,99.20 194.40,100.00 194.00,100.80 192.80,101.60"/>
    </edge>
    <edge id=":n_1_3_0" function="internal">
        <lane id=":n_1_3_0_0" index="0" speed="6.51" length="9.03" shape="298.40,107.20 298.05,104.75 297.00,103.00 295.25,101.95 292.80,101.60"/>
    </edge>
    <edge id=":n_1_3_1" function="internal">
        <lane id=":n_1_3_1_0" index="0" speed="13.90" length="14.40" shape="298.40,107.20 298.40,92.80"/>
    </edge>
    <edge id=":n_1_3_2" function="internal">
        <lane id=":n_1_3_2_0" index="0" speed="3.65" length="1.44" shape="298.40,107.20 299.20,106.00"/>
    </edge>
    <edge id=":n_1_3_9" function="internal">
        <lane id=":n_1_3_9_0" index="0" speed="3.65" length="3.23" shape="299.20,106.00 300.00,105.60 300.80,106.00 301.60,107.20"/>
    </edge>
    <edge id=":n_1_3_3" function="internal">
        <lane id=":n_1_3_3_0" index="0" speed="13.90" length="14.40" shape="301.60,92.80 301.60,107.20"/>
    </edge>
    <edge id=":n_1_3_4" function="internal">
        <lane id=":n_1_3_4_0" index="0" speed="8.00" length="4.07" shape="301.60,92.80 301.05,96.65 300.96,96.80"/>
    </edge>
    <edge id=":n_1_3_5" function="internal">
        <lane id=":n_1_3_5_0" index="0" speed="3.65" length="1.44" shape="301.60,92.80 300.80,94.00"/>
    </edge>
    <edge id=":n_1_3_10" function="internal">
        <lane id=":n_1_3_10_0" index="0" speed="8.00" length="10.13" shape="300.96,96.80 299.40,99.40 296.65,101.05 292.80,101.60"/>
    </edge>
    <edge id=":n_1_3_11" function="internal">
        <lane id=":n_1_3_11_0" index="0" speed="3.65" length="3.23" shape="300.80,94.00 300.00,94.40 299.20,94.00 298.40,92.80"/>
    </edge>
    <edge id=":n_1_3_6" function="internal">
        <lane id=":n_1_3_6_0" index="0" speed="6.51" length="9.03" shape="292.80,98.40 295.25,98.05 297.00,97.00 298.05,95.25 298.40,92.80"/>
    </edge>
    <edge id=":n_1_3_7" function="internal">
        <lane id=":n_1_3_7_0" index="0" speed="8.00" length="14.19" shape="292.80,98.40 296.65,98.95 299.40,100.60 301.05,103.35 301.60,107.20"/>
    </edge>
    <edge id=":n_1_3_8" function="internal">
        <lane id=":n_1_3_8_0" index="0" speed="3.65" length="1.44" shape="292.80,98.40 294.00,99.20"/>
    </edge>
    <edge id=":n_1_3_12" function="internal">
        <lane id=":n_1_3_12_0" index="0" speed="3.65" length="3.23" shape="294.00,99.20 294.40,100.00 294.00,100.80 292.80,101.60"/>
    </edge>
    <edge id=":n_2_0_0" function="internal">
        <lane id=":n_2_0_0_0" index="0" speed="6.08" length="7.74" shape="3.20,201.60 1.10,201.30 -0.40,200.40 -1.30,198.90 -1.60,196.80"/>
    </edge>
    <edge id=":n_2_0_1" function="internal">
        <lane id=":n_2_0_1_0" index="0" speed="3.90" length="2.58" shape="1.60,196.80 1.70,197.50 2.00,198.00 2.50,198.30 3.20,198.40"/>
    </edge>
    <edge id=":n_2_1_0" function="internal">
        <lane id=":n_2_1_0_0" index="0" speed="13.90" length="14.40" shape="107.20,201.60 92.80,201.60"/>
    </edge>
    <edge id=":n_2_1_1" function="internal">
        <lane id=":n_2_1_1_0" index="0" speed="8.00" length="4.07" shape="107.20,201.60 103.35,201.05 103.20,200.96"/>
    </edge>
    <edge id=":n_2_1_2" function="internal">
        <lane id=":n_2_1_2_0" index="0" speed="3.65" length="1.44" shape="107.20,201.60 106.00,200.80"/>
    </edge>
    <edge id=":n_2_1_9" function="internal">
        <lane id=":n_2_1_9_0" index="0" speed="8.00" length="10.13" shape="103.20,200.96 100.60,199.40 98.95,196.65 98.40,192.80"/>
    </edge>
    <edge id=":n_2_1_10" function="internal">
        <lane id=":n_2_1_10_0" index="0" speed="3.65" length="3.23" shape="106.00,200.80 105.60,200.00 106.00,199.20 107.20,198.40"/>
    </edge>
    <edge id=":n_2_1_3" function="internal">
        <lane id=":n_2_1_3_0" index="0" speed="6.51" length="9.03" shape="101.60,192.80 101.95,195.25 103.00,197.00 104.75,198.05 107.20,198.40"/>
    </edge>
    <edge id=":n_2_1_4" function="internal">
        <lane id=":n_2_1_4_0" index="0" speed="8.00" length="14.19" shape="101.60,192.80 101.05,196.65 99.40,199.40 96.65,201.05 92.80,201.60"/>
    </edge>
    <edge id=":n_2_1_5" function="internal">
        <lane id=":n_2_1_5_0" index="0" speed="3.65" length="1.44" shape="101.60,192.80 100.80,194.00"/>
    </edge>
    <edge id=":n_2_1_11" function="internal">
        <lane id=":n_2_1_11_0" index="0" speed="3.65" length="3.23" shape="100.80,194.00 100.00,194.40 99.20,194.00 98.40,192.80"/>
    </edge>
    <edge id=":n_2_1_6" function="internal">
        <lane id=":n_2_1_6_0" index="0" speed="6.51" length="9.03" shape="92.80,198.40 95.25,198.05 97.00,197.00 98.05,195.25 98.40,192.80"/>
    </edge>
    <edge id=":n_2_1_7" function="internal">
        <lane id=":n_2_1_7_0" index="0" speed="13.90" length="14.40" shape="92.80,198.40 107.20,198.40"/>
    </edge>
    <edge id=":n_2_1_8" function="internal">
        <lane id=":n_2_1_8_0" index="0" speed="3.65" length="1.44" shape="92.80,198.40 94.00,199.20"/>
    </edge>
    <edge id=":n_2_1_12" function="internal">
        <lane id=":n_2_1_12_0" index="0" speed="3.65" length="3.23" shape="94.00,199.20 94.40,200.00 94.00,200.80 92.80,201.60"/>
    </edge>
    <edge id=":n_2_2_0" function="internal">
        <lane id=":n_2_2_0_0" index="0" speed="13.90" length="14.40" shape="207.20,201.60 192.80,201.60"/>
    </edge>
    <edge id=":n_2_2_1" function="internal">
        <lane id=":n_2_2_1_0" index="0" speed="8.00" length="4.07" shape="207.20,201.60 203.35,201.05 203.20,200.96"/>
    </edge>
    <edge id=":n_2_2_2" function="internal">
        <lane id=":n_2_2_2_0" index="0" speed="3.65" length="1.44" shape="207.20,201.60 206.00,200.80"/>
    </edge>
    <edge id=":n_2_2_9" function="internal">
        <lane id=":n_2_2_9_0" index="0" speed="8.00" length="10.13" shape="203.20,200.96 200.60,199.40 198.95,196.65 198.40,192.80"/>
    </edge>
    <edge id=":n_2_2_10" function="internal">
        <lane id=":n_2_2_10_0" index="0" speed="3.65" length="3.23" shape="206.00,200.80 205.60,200.00 206.00,199.20 207.20,198.40"/>
    </edge>
    <edge id=":n_2_2_3" function="internal">
        <lane id=":n_2_2_3_0" index="0" speed="6.51" length="9.03" shape="201.60,192.80 201.95,195.25 203.00,197.00 204.75,198.05 207.20,198.40"/>
    </edge>
    <edge id=":n_2_2_4" function="internal">
        <lane id=":n_2_2_4_0" index="0" speed="8.00" length="14.19" shape="201.60,192.80 201.05,196.65 199.40,199.40 196.65,201.05 192.80,201.60"/>
    </edge>
    <edge id=":n_2_2_5" function="internal">
        <lane id=":n_2_2_5_0" index="0" speed="3.65" length="1.44" shape="201.60,192.80 200.80,194.00"/>
    </edge>
    <edge id=":n_2_2_11" function="internal">
        <lane id=":n_2_2_11_0" index="0" speed="3.65" length="3.23" shape="200.80,194.00 200.00,194.40 199.20,194.00 198.40,192.80"/>
    </edge>
    <edge id=":n_2_2_6" function="internal">
        <lane id=":n_2_2_6_0" index="0" speed="6.51" length="9.03" shape="192.80,198.40 195.25,198.05 197.00,197.00 198.05,195.25 198.40,192.80"/>
    </edge>
    <edge id=":n_2_2_7" function="internal">
        <lane id=":n_2_2_7_0" index="0" speed="13.90" length="14.40" shape="192.80,198.40 207.20,198.40"/>
    </edge>
    <edge id=":n_2_2_8" function="internal">
        <lane id=":n_2_2_8_0" index="0" speed="3.65" length="1.44" shape="192.80,198.40 194.00,199.20"/>
    </edge>
    <edge id=":n_2_2_12" function="internal">
        <lane id=":n_2_2_12_0" index="0" speed="3.65" length="3.23" shape="194.00,199.20 194.40,200.00 194.00,200.80 192.80,201.60"/>
    </edge>
    <edge id=":n_2_3_0" function="internal">
        <lane id=":n_2_3_0_0" index="0" speed="6.08" length="7.74" shape="301.60,196.80 301.30,198.90 300.40,200.40 298.90,201.30 296.80,201.60"/>
    </edge>
    <edge id=":n_2_3_1" function="internal">
        <lane id=":n_2_3_1_0" index="0" speed="3.90" length="2.58" shape="296.80,198.40 297.50,198.30 298.00,198.00 298.30,197.50 298.40,196.80"/>
    </edge>

    <edge id="e_n_0_0_n_0_1" from="n_0_0" to="n_0_1" priority="1">
        <lane id="e_n_0_0_n_0_1_0" index="0" speed="13.90" length="89.60" shape="3.20,-1.60 92.80,-1.60"/>
    </edge>
    <edge id="e_n_0_0_n_1_0" from="n_0_0" to="n_1_0" priority="1">
        <lane id="e_n_0_0_n_1_0_0" index="0" speed="13.90" length="89.60" shape="1.60,3.20 1.60,92.80"/>
    </edge>
    <edge id="e_n_0_1_n_0_0" from="n_0_1" to="n_0_0" priority="1">
        <lane id="e_n_0_1_n_0_0_0" index="0" speed="13.90" length="89.60" shape="92.80,1.60 3.20,1.60"/>
    </edge>
    <edge id="e_n_0_1_n_0_2" from="n_0_1" to="n_0_2" priority="1">
        <lane id="e_n_0_1_n_0_2_0" index="0" speed="13.90" length="85.60" shape="107.20,-1.60 192.80,-1.60"/>
    </edge>
    <edge id="e_n_0_1_n_1_1" from="n_0_1" to="n_1_1" priority="1">
        <lane id="e_n_0_1_n_1_1_0" index="0" speed="13.90" length="85.60" shape="101.60,7.20 101.60,92.80"/>
    </edge>
    <edge id="e_n_0_2_n_0_1" from="n_0_2" to="n_0_1" priority="1">
        <lane id="e_n_0_2_n_0_1_0" index="0" speed="13.90" length="85.60" shape="192.80,1.60 107.20,1.60"/>
    </edge>
    <edge id="e_n_0_2_n_0_3" from="n_0_2" to="n_0_3" priority="1">
        <lane id="e_n_0_2_n_0_3_0" index="0" speed="13.90" length="89.60" shape="207.20,-1.60 296.80,-1.60"/>
    </edge>
    <edge id="e_n_0_2_n_1_2" from="n_0_2" to="n_1_2" priority="1">
        <lane id="e_n_0_2_n_1_2_0" index="0" speed="13.90" length="85.60" shape="201.60,7.20 201.60,92.80"/>
    </edge>
    <edge id="e_n_0_3_n_0_2" from="n_0_3" to="n_0_2" priority="1">
        <lane id="e_n_0_3_n_0_2_0" index="0" speed="13.90" length="89.60" shape="296.80,1.60 207.20,1.60"/>
    </edge>
    <edge id="e_n_0_3_n_1_3" from="n_0_3" to="n_1_3" priority="1">
        <lane id="e_n_0_3_n_1_3_0" index="0" speed="13.90" length="89.60" shape="301.60,3.20 301.60,92.80"/>
    </edge>
    <edge id="e_n_1_0_n_0_0" from="n_1_0" to="n_0_0" priority="1">
        <lane id="e_n_1_0_n_0_0_0" index="0" speed="13.90" length="89.60" shape="-1.60,92.80 -1.60,3.20"/>
    </edge>
    <edge id="e_n_1_0_n_1_1" from="n_1_0" to="n_1_1" priority="1">
        <lane id="e_n_1_0_n_1_1_0" index="0" speed="13.90" length="85.60" shape="7.20,98.40 92.80,98.40"/>
    </edge>
    <edge id="e_n_1_0_n_2_0" from="n_1_0" to="n_2_0" priority="1">
        <lane id="e_n_1_0_n_2_0_0" index="0" speed="13.90" length="89.60" shape="1.60,107.20 1.60,196.80"/>
    </edge>
    <edge id="e_n_1_1_n_0_1" from="n_1_1" to="n_0_1" priority="1">
        <lane id="e_n_1_1_n_0_1_0" index="0" speed="13.90" length="85.60" shape="98.40,92.80 98.40,7.20"/>
    </edge>
    <edge id="e_n_1_1_n_1_0" from="n_1_1" to="n_1_0" priority="1">
        <lane id="e_n_1_1_n_1_0_0" index="0" speed="13.90" length="85.60" shape="92.80,101.60 7.20,101.60"/>
    </edge>
    <edge id="e_n_1_1_n_1_2" from="n_1_1" to="n_1_2" priority="1">
        <lane id="e_n_1_1_n_1_2_0" index="0" speed="13.90" length="85.60" shape="107.20,98.40 192.80,98.40"/>
    </edge>
    <edge id="e_n_1_1_n_2_1" from="n_1_1" to="n_2_1" priority="1">
        <lane id="e_n_1_1_n_2_1_0" index="0" speed="13.90" length="85.60" shape="101.60,107.20 101.60,192.80"/>
    </edge>
    <edge id="e_n_1_2_n_0_2" from="n_1_2" to="n_0_2" priority="1">
        <lane id="e_n_1_2_n_0_2_0" index="0" speed="13.90" length="85.60" shape="198.40,92.80 198.40,7.20"/>
    </edge>
    <edge id="e_n_1_2_n_1_1" from="n_1_2" to="n_1_1" priority="1">
        <lane id="e_n_1_2_n_1_1_0" index="0" speed="13.90" length="85.60" shape="192.80,101.60 107.20,101.60"/>
    </edge>
    <edge id="e_n_1_2_n_1_3" from="n_1_2" to="n_1_3" priority="1">
        <lane id="e_n_1_2_n_1_3_0" index="0" speed="13.90" length="85.60" shape="207.20,98.40 292.80,98.40"/>
    </edge>
    <edge id="e_n_1_2_n_2_2" from="n_1_2" to="n_2_2" priority="1">
        <lane id="e_n_1_2_n_2_2_0" index="0" speed="13.90" length="85.60" shape="201.60,107.20 201.60,192.80"/>
    </edge>
    <edge id="e_n_1_3_n_0_3" from="n_1_3" to="n_0_3" priority="1">
        <lane id="e_n_1_3_n_0_3_0" index="0" speed="13.90" length="89.60" shape="298.40,92.80 298.40,3.20"/>
    </edge>
    <edge id="e_n_1_3_n_1_2" from="n_1_3" to="n_1_2" priority="1">
        <lane id="e_n_1_3_n_1_2_0" index="0" speed="13.90" length="85.60" shape="292.80,101.60 207.20,101.60"/>
    </edge>
    <edge id="e_n_1_3_n_2_3" from="n_1_3" to="n_2_3" priority="1">
        <lane id="e_n_1_3_n_2_3_0" index="0" speed="13.90" length="89.60" shape="301.60,107.20 301.60,196.80"/>
    </edge>
    <edge id="e_n_2_0_n_1_0" from="n_2_0" to="n_1_0" priority="1">
        <lane id="e_n_2_0_n_1_0_0" index="0" speed="13.90" length="89.60" shape="-1.60,196.80 -1.60,107.20"/>
    </edge>
    <edge id="e_n_2_0_n_2_1" from="n_2_0" to="n_2_1" priority="1">
        <lane id="e_n_2_0_n_2_1_0" index="0" speed="13.90" length="89.60" shape="3.20,198.40 92.80,198.40"/>
    </edge>
    <edge id="e_n_2_1_n_1_1" from="n_2_1" to="n_1_1" priority="1">