<?xml version="1.0" encoding="UTF-8"?>

<!-- generated on 2025-12-24 15:53:34.529336 by Eclipse SUMO randomTrips.py UNKNOWN
<configuration>
    <net-file value="grid.net.xml"/>
    <route-file value="grid.rou.xml"/>
    <end value="500.0"/>
    <period value="5.0"/>
</configuration>
-->

<!-- generated on 2025-12-24T15:53:34.526085+08:00 by Eclipse SUMO duarouter 1.25.0
<duarouterConfiguration xmlns:xsi="http://www.w3.org/2001/XMLSchema-instance" xsi:noNamespaceSchemaLocation="http://sumo.dlr.de/xsd/duarouterConfiguration.xsd">

    <input>
        <net-file value="grid.net.xml"/>
        <route-files value="trips.trips.xml"/>
    </input>

    <output>
        <output-file value="grid.rou.xml"/>
        <alternatives-output value="NUL"/>
    </output>

    <time>
        <begin value="0"/>
        <end value="500.0"/>
    </time>

    <report>
        <no-warnings value="true"/>
        <ignore-errors value="true"/>
        <no-step-log value="true"/>
    </report>

</duarouterConfiguration>
-->

<routes xmlns:xsi="http://www.w3.org/2001/XMLSchema-instance" xsi:noNamespaceSchemaLocation="http://sumo.dlr.de/xsd/routes_file.xsd">
    <vehicle id="0" depart="0.00">
        <route edges="e_n_1_3_n_0_3 e_n_0_3_n_0_2 e_n_0_2_n_0_1 e_n_0_1_n_1_1 e_n_1_1_n_1_0 e_n_1_0_n_0_0 e_n_0_0_n_0_1"/>
    </vehicle>
    <vehicle id="1" depart="5.00">
        <route edges="e_n_0_3_n_1_3 e_n_1_3_n_0_3 e_n_0_3_n_0_2 e_n_0_2_n_1_2"/>
    </vehicle>
    <vehicle id="2" depart="10.00">
        <route edges="e_n_2_0_n_2_1 e_n_2_1_n_2_2 e_n_2_2_n_1_2 e_n_1_2_n_1_3 e_n_1_3_n_2_3"/>
    </vehicle>
    <vehicle id="3" depart="15.00">
        <route edges="e_n_2_2_n_2_1 e_n_2_1_n_1_1 e_n_1_1_n_0_1 e_n_0_1_n_0_0"/>
    </vehicle>
    <vehicle id="4" depart="20.00">
        <route edges="e_n_1_1_n_1_0 e_n_1_0_n_1_1 e_n_1_1_n_0_1 e_n_0_1_n_0_0 e_n_0_0_n_1_0"/>
    </vehicle>
    <vehicle id="5" depart="25.00">
        <route edges="e_n_0_2_n_1_2 e_n_1_2_n_0_2"/>
    </vehicle>
    <vehicle id="6" depart="30.00">
        <route edges="e_n_0_0_n_0_1 e_n_0_1_n_0_2 e_n_0_2_n_0_3"/>
    </vehicle>
    <vehicle id="7" depart="35.00">
        <route edges="e_n_1_3_n_1_2 e_n_1_2_n_1_1"/>
    </vehicle>
    <vehicle id="8" depart="40.00">
        <route edges="e_n_0_2_n_1_2 e_n_1_2_n_2_2"/>
    </vehicle>
    <vehicle id="9" depart="45.00">
        <route edges="e_n_2_1_n_2_0 e_n_2_0_n_1_0 e_n_1_0_n_0_0 e_n_0_0_n_0_1"/>
    </vehicle>
    <vehicle id="10" depart="50.00">
        <route edges="e_n_2_1_n_2_0 e_n_2_0_n_1_0 e_n_1_0_n_1_1 e_n_1_1_n_1_2 e_n_1_2_n_1_3 e_n_1_3_n_2_3"/>
    </vehicle>
    <vehicle id="11" depart="55.00">
        <route edges="e_n_1_0_n_1_1 e_n_1_1_n_1_2 e_n_1_2_n_0_2 e_n_0_2_n_0_1"/>
    </vehicle>
    <vehicle id="12" depart="60.00">
        <route edges="e_n_2_3_n_1_3 e_n_1_3_n_1_2 e_n_1_2_n_1_1 e_n_1_1_n_1_0 e_n_1_0_n_1_1"/>
    </vehicle>
    <vehicle id="13" depart="65.00">
        <route edges="e_n_0_1_n_0_2"/>
    </vehicle>
    <vehicle id="14" depart="70.00">
        <route edges="e_n_2_1_n_2_2 e_n_2_2_n_1_2 e_n_1_2_n_2_2"/>
    </vehicle>
    <vehicle id="15" depart="75.00">
        <route edges="e_n_2_1_n_2_0 e_n_2_0_n_1_0"/>
    </vehicle>
    <vehicle id="16" depart="80.00">
        <route edges="e_n_1_2_n_1_1 e_n_1_1_n_1_2 e_n_1_2_n_1_3 e_n_1_3_n_2_3 e_n_2_3_n_2_2"/>
    </vehicle>
    <vehicle id="17" depart="85.00">
        <route edges="e_n_1_0_n_2_0 e_n_2_0_n_2_1 e_n_2_1_n_2_2 e_n_2_2_n_1_2 e_n_1_2_n_1_1"/>
    </vehicle>
    <vehicle id="18" depart="90.00">
        <route edges="e_n_2_1_n_2_2 e_n_2_2_n_2_3 e_n_2_3_n_1_3 e_n_1_3_n_0_3"/>
    </vehicle>
    <vehicle id="19" depart="95.00">
        <route edges="e_n_2_2_n_1_2 e_n_1_2_n_1_3"/>
    </vehicle>
    <vehicle id="20" depart="100.00">
        <route edges="e_n_1_3_n_2_3 e_n_2_3_n_2_2 e_n_2_2_n_2_1 e_n_2_1_n_1_1 e_n_1_1_n_0_1 e_n_0_1_n_0_0 e_n_0_0_n_1_0"/>
    </vehicle>
    <vehicle id="21" depart="105.00">
        <route edges="e_n_0_2_n_1_2 e_n_1_2_n_0_2 e_n_0_2_n_0_3 e_n_0_3_n_1_3"/>
    </vehicle>
    <vehicle id="22" depart="110.00">
        <route edges="e_n_0_1_n_0_0 e_n_0_0_n_1_0 e_n_1_0_n_1_1 e_n_1_1_n_0_1 e_n_0_1_n_0_2 e_n_0_2_n_1_2"/>
    </vehicle>
    <vehicle id="23" depart="115.00">
        <route edges="e_n_0_1_n_0_2 e_n_0_2_n_0_3 e_n_0_3_n_1_3"/>
    </vehicle>
    <vehicle id="24" depart="120.00">
        <route edges="e_n_1_3_n_0_3 e_n_0_3_n_0_2 e_n_0_2_n_0_1 e_n_0_1_n_0_0 e_n_0_0_n_1_0 e_n_1_0_n_2_0"/>
    </vehicle>
    <vehicle id="25" depart="125.00">
        <route edges="e_n_1_0_n_2_0 e_n_2_0_n_2_1 e_n_2_1_n_1_1 e_n_1_1_n_0_1 e_n_0_1_n_0_2 e_n_0_2_n_1_2"/>
    </vehicle>
    <vehicle id="26" depart="130.00">
        <route edges="e_n_0_3_n_1_3 e_n_1_3_n_1_2 e_n_1_2_n_2_2 e_n_2_2_n_2_3"/>
    </vehicle>
    <vehicle id="27" depart="135.00">
        <route edges="e_n_1_3_n_1_2 e_n_1_2_n_2_2"/>
    </vehicle>
    <vehicle id="28" depart="140.00">
        <route edges="e_n_0_2_n_0_1 e_n_0_1_n_1_1 e_n_1_1_n_2_1 e_n_2_1_n_2_0 e_n_2_0_n_1_0"/>
    </vehicle>
    <vehicle id="29" depart="145.00">
        <route edges="e_n_0_2_n_0_1 e_n_0_1_n_0_0 e_n_0_0_n_1_0 e_n_1_0_n_2_0"/>
    </vehicle>
    <vehicle id="30" depart="150.00">
        <route edges="e_n_2_3_n_2_2 e_n_2_2_n_1_2 e_n_1_2_n_1_3 e_n_1_3_n_0_3"/>
    </vehicle>
    <vehicle id="31" depart="155.00">
        <route edges="e_n_1_2_n_1_1 e_n_1_1_n_1_2 e_n_1_2_n_1_3 e_n_1_3_n_2_3"/>
    </vehicle>
    <vehicle id="32" depart="160.00">
        <route edges="e_n_2_1_n_2_2 e_n_2_2_n_2_1 e_n_2_1_n_1_1"/>
    </vehicle>
    <vehicle id="33" depart="165.00">
        <route edges="e_n_0_2_n_1_2 e_n_1_2_n_1_1 e_n_1_1_n_0_1 e_n_0_1_n_0_0 e_n_0_0_n_1_0"/>
    </vehicle>
    <vehicle id="34" depart="170.00">
        <route edges="e_n_1_0_n_0_0 e_n_0_0_n_0_1 e_n_0_1_n_0_2 e_n_0_2_n_0_3 e_n_0_3_n_1_3"/>
    </vehicle>
    <vehicle id="35" depart="175.00">
        <route edges="e_n_0_2_n_1_2 e_n_1_2_n_2_2 e_n_2_2_n_2_3 e_n_2_3_n_1_3"/>
    </vehicle>
    <vehicle id="36" depart="180.00">
        <route edges="e_n_2_2_n_1_2 e_n_1_2_n_1_1 e_n_1_1_n_1_0 e_n_1_0_n_0_0"/>
    </vehicle>
    <vehicle id="37" depart="185.00">
        <route edges="e_n_1_3_n_1_2 e_n_1_2_n_1_1 e_n_1_1_n_0_1"/>
    </vehicle>
    <vehicle id="38" depart="190.00">
        <route edges="e_n_2_2_n_2_3 e_n_2_3_n_1_3 e_n_1_3_n_1_2 e_n_1_2_n_1_1 e_n_1_1_n_1_2"/>
    </vehicle>
    <vehicle id="39" depart="195.00">
        <route edges="e_n_0_3_n_1_3 e_n_1_3_n_0_3 e_n_0_3_n_0_2"/>
    </vehicle>
    <vehicle id="40" depart="200.00">
        <route edges="e_n_1_2_n_1_3 e_n_1_3_n_0_3 e_n_0_3_n_0_2"/>
    </vehicle>
    <vehicle id="41" depart="205.00">
        <route edges="e_n_1_2_n_1_3 e_n_1_3_n_2_3 e_n_2_3_n_2_2 e_n_2_2_n_2_1"/>
    </vehicle>
    <vehicle id="42" depart="210.00">
        <route edges="e_n_1_1_n_0_1 e_n_0_1_n_0_2 e_n_0_2_n_1_2"/>
    </vehicle>
    <vehicle id="43" depart="215.00">
        <route edges="e_n_2_3_n_2_2 e_n_2_2_n_1_2 e_n_1_2_n_0_2"/>
    </vehicle>
    <vehicle id="44" depart="220.00">
        <route edges="e_n_0_1_n_0_2 e_n_0_2_n_0_1 e_n_0_1_n_0_0 e_n_0_0_n_1_0"/>
    </vehicle>
    <vehicle id="45" depart="225.00">
        <route edges="e_n_0_1_n_0_2 e_n_0_2_n_1_2 e_n_1_2_n_1_3 e_n_1_3_n_0_3"/>
    </vehicle>
    <vehicle id="46" depart="230.00">
        <route edges="e_n_2_1_n_1_1 e_n_1_1_n_1_0"/>
    </vehicle>
    <vehicle id="47" depart="235.00">
        <route edges="e_n_0_1_n_0_0 e_n_0_0_n_1_0 e_n_1_0_n_2_0"/>
    </vehicle>
    <vehicle id="48" depart="240.00">
        <route edges="e_n_2_3_n_2_2 e_n_2_2_n_1_2 e_n_1_2_n_0_2"/>
    </vehicle>
    <vehicle id="49" depart="245.00">
        <route edges="e_n_2_3_n_2_2 e_n_2_2_n_1_2"/>
    </vehicle>
    <vehicle id="50" depart="250.00">
        <route edges="e_n_0_0_n_0_1 e_n_0_1_n_1_1 e_n_1_1_n_2_1 e_n_2_1_n_2_0 e_n_2_0_n_1_0"/>
    </vehicle>
    <vehicle id="51" depart="255.00">
        <route edges="e_n_1_3_n_2_3 e_n_2_3_n_2_2 e_n_2_2_n_1_2 e_n_1_2_n_1_1"/>
    </vehicle>
    <vehicle id="52" depart="260.00">
        <route edges="e_n_0_3_n_1_3 e_n_1_3_n_0_3"/>
    </vehicle>
    <vehicle id="53" depart="265.00">
        <route edges="e_n_0_1_n_0_2 e_n_0_2_n_1_2 e_n_1_2_n_1_1 e_n_1_1_n_1_0"/>
    </vehicle>
    <vehicle id="54" depart="270.00">
        <route edges="e_n_1_1_n_1_2 e_n_1_2_n_2_2 e_n_2_2_n_2_3 e_n_2_3_n_1_3"/>
    </vehicle>
    <vehicle id="55" depart="275.00">
        <route edges="e_n_2_2_n_1_2 e_n_1_2_n_1_3 e_n_1_3_n_0_3 e_n_0_3_n_0_2"/>
    </vehicle>
    <vehicle id="56" depart="280.00">
        <route edges="e_n_1_2_n_0_2 e_n_0_2_n_0_3"/>
    </vehicle>
    <vehicle id="57" depart="285.00">
        <route edges="e_n_2_2_n_2_3 e_n_2_3_n_1_3 e_n_1_3_n_1_2 e_n_1_2_n_2_2 e_n_2_2_n_1_2"/>
    </vehicle>
    <vehicle id="58" depart="290.00">
        <route edges="e_n_1_0_n_0_0 e_n_0_0_n_0_1 e_n_0_1_n_0_2 e_n_0_2_n_1_2 e_n_1_2_n_1_3 e_n_1_3_n_0_3"/>
    </vehicle>
    <vehicle id="59" depart="295.00">
        <route edges="e_n_1_2_n_2_2 e_n_2_2_n_1_2 e_n_1_2_n_0_2 e_n_0_2_n_0_1"/>
    </vehicle>
    <vehicle id="60" depart="300.00">
        <route edges="e_n_2_0_n_2_1 e_n_2_1_n_2_2 e_n_2_2_n_1_2 e_n_1_2_n_1_1"/>
    </vehicle>
    <vehicle id="61" depart="305.00">
        <route edges="e_n_2_1_n_1_1 e_n_1_1_n_1_2 e_n_1_2_n_1_1"/>
    </vehicle>
    <vehicle id="62" depart="310.00">
        <route edges="e_n_0_0_n_0_1 e_n_0_1_n_0_0 e_n_0_0_n_1_0 e_n_1_0_n_1_1"/>
    </vehicle>
    <vehicle id="63" depart="315.00">
        <route edges="e_n_0_0_n_0_1 e_n_0_1_n_0_2 e_n_0_2_n_1_2 e_n_1_2_n_2_2 e_n_2_2_n_2_3"/>
    </vehicle>
    <vehicle id="64" depart="320.00">
        <route edges="e_n_2_2_n_1_2 e_n_1_2_n_1_1 e_n_1_1_n_2_1 e_n_2_1_n_2_2"/>
    </vehicle>
    <vehicle id="65" depart="325.00">
        <route edges="e_n_1_0_n_0_0 e_n_0_0_n_0_1 e_n_0_1_n_0_0 e_n_0_0_n_1_0"/>
    </vehicle>
    <vehicle id="66" depart="330.00">
        <route edges="e_n_2_2_n_1_2 e_n_1_2_n_2_2 e_n_2_2_n_2_3 e_n_2_3_n_1_3"/>
    </vehicle>
    <vehicle id="67" depart="335.00">
        <route edges="e_n_0_1_n_0_0 e_n_0_0_n_1_0 e_n_1_0_n_1_1 e_n_1_1_n_2_1"/>
    </vehicle>
    <vehicle id="68" depart="340.00">
        <route edges="e_n_0_1_n_0_0 e_n_0_0_n_1_0 e_n_1_0_n_2_0 e_n_2_0_n_2_1"/>
    </vehicle>
    <vehicle id="69" depart="345.00">
        <route edges="e_n_2_1_n_1_1 e_n_1_1_n_0_1 e_n_0_1_n_1_1"/>
    </vehicle>
    <vehicle id="70" depart="350.00">
        <route edges="e_n_1_1_n_2_1 e_n_2_1_n_2_2 e_n_2_2_n_1_2 e_n_1_2_n_1_1"/>
    </vehicle>
    <vehicle id="71" depart="355.00">
        <route edges="e_n_0_3_n_1_3 e_n_1_3_n_2_3 e_n_2_3_n_2_2 e_n_2_2_n_1_2"/>
    </vehicle>
    <vehicle id="72" depart="360.00">
        <route edges="e_n_1_1_n_1_0 e_n_1_0_n_0_0 e_n_0_0_n_0_1 e_n_0_1_n_0_2 e_n_0_2_n_1_2"/>
    </vehicle>
    <vehicle id="73" depart="365.00">
        <route edges="e_n_1_2_n_1_1 e_n_1_1_n_2_1 e_n_2_1_n_2_0 e_n_2_0_n_1_0"/>
    </vehicle>
    <vehicle id="74" depart="370.00">
        <route edges="e_n_0_2_n_0_3 e_n_0_3_n_1_3 e_n_1_3_n_1_2 e_n_1_2_n_1_1 e_n_1_1_n_1_0 e_n_1_0_n_0_0"/>
    </vehicle>
    <vehicle id="75" depart="375.00">
        <route edges="e_n_2_3_n_2_2 e_n_2_2_n_2_3 e_n_2_3_n_1_3 e_n_1_3_n_1_2"/>
    </vehicle>
    <vehicle id="76" depart="380.00">
        <route edges="e_n_1_1_n_1_0 e_n_1_0_n_1_1 e_n_1_1_n_1_2 e_n_1_2_n_0_2"/>
    </vehicle>
    <vehicle id="77" depart="385.00">
        <route edges="e_n_0_1_n_1_1 e_n_1_1_n_1_2 e_n_1_2_n_0_2 e_n_0_2_n_1_2"/>
    </vehicle>
    <vehicle id="78" depart="390.00">
        <route edges="e_n_1_0_n_1_1 e_n_1_1_n_1_2 e_n_1_2_n_2_2"/>
    </vehicle>
    <vehicle id="79" depart="395.00">
        <route edges="e_n_0_2_n_1_2"/>
    </vehicle>
    <vehicle id="80" depart="400.00">
        <route edges="e_n_0_1_n_0_0 e_n_0_0_n_1_0 e_n_1_0_n_1_1 e_n_1_1_n_1_2 e_n_1_2_n_1_3 e_n_1_3_n_0_3"/>
    </vehicle>
    <vehicle id="81" depart="405.00">
        <route edges="e_n_0_2_n_1_2 e_n_1_2_n_2_2 e_n_2_2_n_2_1"/>
    </vehicle>
    <vehicle id="82" depart="410.00">
        <route edges="e_n_2_2_n_1_2 e_n_1_2_n_0_2 e_n_0_2_n_0_1 e_n_0_1_n_0_0"/>
    </vehicle>
    <vehicle id="83" depart="415.00">
        <route edges="e_n_0_3_n_0_2 e_n_0_2_n_1_2 e_n_1_2_n_1_3 e_n_1_3_n_1_2"/>
    </vehicle>
    <vehicle id="84" depart="420.00">
        <route edges="e_n_0_2_n_1_2 e_n_1_2_n_0_2 e_n_0_2_n_0_1 e_n_0_1_n_1_1"/>
    </vehicle>
    <vehicle id="85" depart="425.00">
        <route edges="e_n_2_2_n_2_3 e_n_2_3_n_1_3 e_n_1_3_n_1_2 e_n_1_2_n_1_3"/>
    </vehicle>
    <vehicle id="86" depart="430.00">
        <route edges="e_n_1_1_n_2_1 e_n_2_1_n_1_1"/>
    </vehicle>
    <vehicle id="87" depart="435.00">
        <route edges="e_n_2_1_n_2_0 e_n_2_0_n_1_0 e_n_1_0_n_0_0 e_n_0_0_n_0_1 e_n_0_1_n_0_2 e_n_0_2_n_0_3"/>
    </vehicle>
    <vehicle id="88" depart="440.00">
        <route edges="e_n_0_1_n_0_2 e_n_0_2_n_1_2 e_n_1_2_n_1_1 e_n_1_1_n_1_0"/>
    </vehicle>
    <vehicle id="89" depart="445.00">
        <route edges="e_n_1_1_n_1_0 e_n_1_0_n_1_1 e_n_1_1_n_1_2"/>
    </vehicle>
    <vehicle id="90" depart="450.00">
        <route edges="e_n_2_0_n_1_0 e_n_1_0_n_1_1 e_n_1_1_n_1_2 e_n_1_2_n_1_3 e_n_1_3_n_1_2"/>
    </vehicle>
    <vehicle id="91" depart="455.00">
        <route edges="e_n_2_3_n_2_2 e_n_2_2_n_2_1 e_n_2_1_n_1_1 e_n_1_1_n_0_1 e_n_0_1_n_0_2"/>
    </vehicle>
    <vehicle id="92" depart="460.00">
        <route edges="e_n_1_1_n_0_1 e_n_0_1_n_0_0 e_n_0_0_n_1_0 e_n_1_0_n_1_1"/>
    </vehicle>
    <vehicle id="93" depart="465.00">
        <route edges="e_n_2_2_n_1_2 e_n_1_2_n_1_3 e_n_1_3_n_0_3 e_n_0_3_n_0_2"/>
    </vehicle>
    <vehicle id="94" depart="470.00">
        <route edges="e_n_0_2_n_0_3 e_n_0_3_n_1_3 e_n_1_3_n_1_2 e_n_1_2_n_1_1 e_n_1_1_n_1_2"/>
    </vehicle>
    <vehicle id="95" depart="475.00">
        <route edges="e_n_1_1_n_1_0 e_n_1_0_n_0_0 e_n_0_0_n_0_1 e_n_0_1_n_0_2 e_n_0_2_n_0_3 e_n_0_3_n_1_3"/>
    </vehicle>
    <vehicle id="96" depart="480.00">
        <route edges="e_n_0_3_n_0_2 e_n_0_2_n_1_2 e_n_1_2_n_2_2 e_n_2_2_n_2_3"/>
    </vehicle>
    <vehicle id="97" depart="485.00">
        <route edges="e_n_1_1_n_1_2 e_n_1_2_n_2_2 e_n_2_2_n_1_2"/>
    </vehicle>
    <vehicle id="98" depart="490.00">
        <route edges="e_n_1_2_n_1_1 e_n_1_1_n_0_1 e_n_0_1_n_0_0 e_n_0_0_n_1_0"/>
    </vehicle>
    <vehicle id="99" depart="495.00">
        <route edges="e_n_2_3_n_2_2 e_n_2_2_n_2_1 e_n_2_1_n_2_2"/>
    </vehicle>
</routes>
