<?xml version="1.0" encoding="UTF-8"?>

<!-- generated on 2025-12-24 15:53:34.496379 by Eclipse SUMO randomTrips.py UNKNOWN
<configuration>
    <net-file value="grid.net.xml"/>
    <route-file value="grid.rou.xml"/>
    <end value="500.0"/>
    <period value="5.0"/>
</configuration>
-->

<routes xmlns:xsi="http://www.w3.org/2001/XMLSchema-instance" xsi:noNamespaceSchemaLocation="http://sumo.dlr.de/xsd/routes_file.xsd">
    <trip id="0" depart="0.00" from="e_n_1_3_n_0_3" to="e_n_0_0_n_0_1"/>
    <trip id="1" depart="5.00" from="e_n_0_3_n_1_3" to="e_n_0_2_n_1_2"/>
    <trip id="2" depart="10.00" from="e_n_2_0_n_2_1" to="e_n_1_3_n_2_3"/>
    <trip id="3" depart="15.00" from="e_n_2_2_n_2_1" to="e_n_0_1_n_0_0"/>
    <trip id="4" depart="20.00" from="e_n_1_1_n_1_0" to="e_n_0_0_n_1_0"/>
    <trip id="5" depart="25.00" from="e_n_0_2_n_1_2" to="e_n_1_2_n_0_2"/>
    <trip id="6" depart="30.00" from="e_n_0_0_n_0_1" to="e_n_0_2_n_0_3"/>
    <trip id="7" depart="35.00" from="e_n_1_3_n_1_2" to="e_n_1_2_n_1_1"/>
    <trip id="8" depart="40.00" from="e_n_0_2_n_1_2" to="e_n_1_2_n_2_2"/>
    <trip id="9" depart="45.00" from="e_n_2_1_n_2_0" to="e_n_0_0_n_0_1"/>
    <trip id="10" depart="50.00" from="e_n_2_1_n_2_0" to="e_n_1_3_n_2_3"/>
    <trip id="11" depart="55.00" from="e_n_1_0_n_1_1" to="e_n_0_2_n_0_1"/>
    <trip id="12" depart="60.00" from="e_n_2_3_n_1_3" to="e_n_1_0_n_1_1"/>
    <trip id="13" depart="65.00" from="e_n_0_1_n_0_2" to="e_n_0_1_n_0_2"/>
    <trip id="14" depart="70.00" from="e_n_2_1_n_2_2" to="e_n_1_2_n_2_2"/>
    <trip id="15" depart="75.00" from="e_n_2_1_n_2_0" to="e_n_2_0_n_1_0"/>
    <trip id="16" depart="80.00" from="e_n_1_2_n_1_1" to="e_n_2_3_n_2_2"/>
    <trip id="17" depart="85.00" from="e_n_1_0_n_2_0" to="e_n_1_2_n_1_1"/>
    <trip id="18" depart="90.00" from="e_n_2_1_n_2_2" to="e_n_1_3_n_0_3"/>
    <trip id="19" depart="95.00" from="e_n_2_2_n_1_2" to="e_n_1_2_n_1_3"/>
    <trip id="20" depart="100.00" from="e_n_1_3_n_2_3" to="e_n_0_0_n_1_0"/>
    <trip id="21" depart="105.00" from="e_n_0_2_n_1_2" to="e_n_0_3_n_1_3"/>
    <trip id="22" depart="110.00" from="e_n_0_1_n_0_0" to="e_n_0_2_n_1_2"/>
    <trip id="23" depart="115.00" from="e_n_0_1_n_0_2" to="e_n_0_3_n_1_3"/>
    <trip id="24" depart="120.00" from="e_n_1_3_n_0_3" to="e_n_1_0_n_2_0"/>
    <trip id="25" depart="125.00" from="e_n_1_0_n_2_0" to="e_n_0_2_n_1_2"/>
    <trip id="26" depart="130.00" from="e_n_0_3_n_1_3" to="e_n_2_2_n_2_3"/>
    <trip id="27" depart="135.00" from="e_n_1_3_n_1_2" to="e_n_1_2_n_2_2"/>
    <trip id="28" depart="140.00" from="e_n_0_2_n_0_1" to="e_n_2_0_n_1_0"/>
    <trip id="29" depart="145.00" from="e_n_0_2_n_0_1" to="e_n_1_0_n_2_0"/>
    <trip id="30" depart="150.00" from="e_n_2_3_n_2_2" to="e_n_1_3_n_0_3"/>
    <trip id="31" depart="155.00" from="e_n_1_2_n_1_1" to="e_n_1_3_n_2_3"/>
    <trip id="32" depart="160.00" from="e_n_2_1_n_2_2" to="e_n_2_1_n_1_1"/>
    <trip id="33" depart="165.00" from="e_n_0_2_n_1_2" to="e_n_0_0_n_1_0"/>
    <trip id="34" depart="170.00" from="e_n_1_0_n_0_0" to="e_n_0_3_n_1_3"/>
    <trip id="35" depart="175.00" from="e_n_0_2_n_1_2" to="e_n_2_3_n_1_3"/>
    <trip id="36" depart="180.00" from="e_n_2_2_n_1_2" to="e_n_1_0_n_0_0"/>
    <trip id="37" depart="185.00" from="e_n_1_3_n_1_2" to="e_n_1_1_n_0_1"/>
    <trip id="38" depart="190.00" from="e_n_2_2_n_2_3" to="e_n_1_1_n_1_2"/>
    <trip id="39" depart="195.00" from="e_n_0_3_n_1_3" to="e_n_0_3_n_0_2"/>
    <trip id="40" depart="200.00" from="e_n_1_2_n_1_3" to="e_n_0_3_n_0_2"/>
    <trip id="41" depart="205.00" from="e_n_1_2_n_1_3" to="e_n_2_2_n_2_1"/>
    <trip id="42" depart="210.00" from="e_n_1_1_n_0_1" to="e_n_0_2_n_1_2"/>
    <trip id="43" depart="215.00" from="e_n_2_3_n_2_2" to="e_n_1_2_n_0_2"/>
    <trip id="44" depart="220.00" from="e_n_0_1_n_0_2" to="e_n_0_0_n_1_0"/>
    <trip id="45" depart="225.00" from="e_n_0_1_n_0_2" to="e_n_1_3_n_0_3"/>
    <trip id="46" depart="230.00" from="e_n_2_1_n_1_1" to="e_n_1_1_n_1_0"/>
    <trip id="47" depart="235.00" from="e_n_0_1_n_0_0" to="e_n_1_0_n_2_0"/>
    <trip id="48" depart="240.00" from="e_n_2_3_n_2_2" to="e_n_1_2_n_0_2"/>
    <trip id="49" depart="245.00" from="e_n_2_3_n_2_2" to="e_n_2_2_n_1_2"/>
    <trip id="50" depart="250.00" from="e_n_0_0_n_0_1" to="e_n_2_0_n_1_0"/>
    <trip id="51" depart="255.00" from="e_n_1_3_n_2_3" to="e_n_1_2_n_1_1"/>
    <trip id="52" depart="260.00" from="e_n_0_3_n_1_3" to="e_n_1_3_n_0_3"/>
    <trip id="53" depart="265.00" from="e_n_0_1_n_0_2" to="e_n_1_1_n_1_0"/>
    <trip id="54" depart="270.00" from="e_n_1_1_n_1_2" to="e_n_2_3_n_1_3"/>
    <trip id="55" depart="275.00" from="e_n_2_2_n_1_2" to="e_n_0_3_n_0_2"/>
    <trip id="56" depart="280.00" from="e_n_1_2_n_0_2" to="e_n_0_2_n_0_3"/>
    <trip id="57" depart="285.00" from="e_n_2_2_n_2_3" to="e_n_2_2_n_1_2"/>
    <trip id="58" depart="290.00" from="e_n_1_0_n_0_0" to="e_n_1_3_n_0_3"/>
    <trip id="59" depart="295.00" from="e_n_1_2_n_2_2" to="e_n_0_2_n_0_1"/>
    <trip id="60" depart="300.00" from="e_n_2_0_n_2_1" to="e_n_1_2_n_1_1"/>
    <trip id="61" depart="305.00" from="e_n_2_1_n_1_1" to="e_n_1_2_n_1_1"/>
    <trip id="62" depart="310.00" from="e_n_0_0_n_0_1" to="e_n_1_0_n_1_1"/>
    <trip id="63" depart="315.00" from="e_n_0_0_n_0_1" to="e_n_2_2_n_2_3"/>
    <trip id="64" depart="320.00" from="e_n_2_2_n_1_2" to="e_n_2_1_n_2_2"/>
    <trip id="65" depart="325.00" from="e_n_1_0_n_0_0" to="e_n_0_0_n_1_0"/>
    <trip id="66" depart="330.00" from="e_n_2_2_n_1_2" to="e_n_2_3_n_1_3"/>
    <trip id="67" depart="335.00" from="e_n_0_1_n_0_0" to="e_n_1_1_n_2_1"/>
    <trip id="68" depart="340.00" from="e_n_0_1_n_0_0" to="e_n_2_0_n_2_1"/>
    <trip id="69" depart="345.00" from="e_n_2_1_n_1_1" to="e_n_0_1_n_1_1"/>
    <trip id="70" depart="350.00" from="e_n_1_1_n_2_1" to="e_n_1_2_n_1_1"/>
    <trip id="71" depart="355.00" from="e_n_0_3_n_1_3" to="e_n_2_2_n_1_2"/>
    <trip id="72" depart="360.00" from="e_n_1_1_n_1_0" to="e_n_0_2_n_1_2"/>
    <trip id="73" depart="365.00" from="e_n_1_2_n_1_1" to="e_n_2_0_n_1_0"/>
    <trip id="74" depart="370.00" from="e_n_0_2_n_0_3" to="e_n_1_0_n_0_0"/>
    <trip id="75" depart="375.00" from="e_n_2_3_n_2_2" to="e_n_1_3_n_1_2"/>
    <trip id="76" depart="380.00" from="e_n_1_1_n_1_0" to="e_n_1_2_n_0_2"/>
    <trip id="77" depart="385.00" from="e_n_0_1_n_1_1" to="e_n_0_2_n_1_2"/>
    <trip id="78" depart="390.00" from="e_n_1_0_n_1_1" to="e_n_1_2_n_2_2"/>
    <trip id="79" depart="395.00" from="e_n_0_2_n_1_2" to="e_n_0_2_n_1_2"/>
    <trip id="80" depart="400.00" from="e_n_0_1_n_0_0" to="e_n_1_3_n_0_3"/>
    <trip id="81" depart="405.00" from="e_n_0_2_n_1_2" to="e_n_2_2_n_2_1"/>
    <trip id="82" depart="410.00" from="e_n_2_2_n_1_2" to="e_n_0_1_n_0_0"/>
    <trip id="83" depart="415.00" from="e_n_0_3_n_0_2" to="e_n_1_3_n_1_2"/>
    <trip id="84" depart="420.00" from="e_n_0_2_n_1_2" to="e_n_0_1_n_1_1"/>
    <trip id="85" depart="425.00" from="e_n_2_2_n_2_3" to="e_n_1_2_n_1_3"/>
    <trip id="86" depart="430.00" from="e_n_1_1_n_2_1" to="e_n_2_1_n_1_1"/>
    <trip id="87" depart="435.00" from="e_n_2_1_n_2_0" to="e_n_0_2_n_0_3"/>
    <trip id="88" depart="440.00" from="e_n_0_1_n_0_2" to="e_n_1_1_n_1_0"/>
    <trip id="89" depart="445.00" from="e_n_1_1_n_1_0" to="e_n_1_1_n_1_2"/>
    <trip id="90" depart="450.00" from="e_n_2_0_n_1_0" to="e_n_1_3_n_1_2"/>
    <trip id="91" depart="455.00" from="e_n_2_3_n_2_2" to="e_n_0_1_n_0_2"/>
    <trip id="92" depart="460.00" from="e_n_1_1_n_0_1" to="e_n_1_0_n_1_1"/>
    <trip id="93" depart="465.00" from="e_n_2_2_n_1_2" to="e_n_0_3_n_0_2"/>
    <trip id="94" depart="470.00" from="e_n_0_2_n_0_3" to="e_n_1_1_n_1_2"/>
    <trip id="95" depart="475.00" from="e_n_1_1_n_1_0" to="e_n_0_3_n_1_3"/>
    <trip id="96" depart="480.00" from="e_n_0_3_n_0_2" to="e_n_2_2_n_2_3"/>
    <trip id="97" depart="485.00" from="e_n_1_1_n_1_2" to="e_n_2_2_n_1_2"/>
    <trip id="98" depart="490.00" from="e_n_1_2_n_1_1" to="e_n_0_0_n_1_0"/>
    <trip id="99" depart="495.00" from="e_n_2_3_n_2_2" to="e_n_2_1_n_2_2"/>
</routes>
