<?xml version="1.0" encoding="UTF-8"?>

<net version="1.9" junctionCornerDetail="5" limitTurnSpeed="5.50" xmlns:xsi="http://www.w3.org/2001/XMLSchema-instance" xsi:noNamespaceSchemaLocation="http://sumo.dlr.de/xsd/net_file.xsd">

    <location netOffset="0.00,0.00" convBoundary="0.00,0.00,100.00,0.00" origBoundary="0.00,0.00,100.00,0.00" projParameter="!"/>

    <edge id="e1" from="n1" to="n2" priority="1">
        <lane id="e1_0" index="0" speed="13.90" length="100.00" shape="0.00,-1.60 100.00,-1.60"/>
    </edge>

    <junction id="n1" type="dead_end" x="0.00" y="0.00" incLanes="" intLanes="" shape="0.00,0.00 0.00,-3.20"/>
    <junction id="n2" type="dead_end" x="100.00" y="0.00" incLanes="e1_0" intLanes="" shape="100.00,-3.20 100.00,0.00"/>

</net>
