<edges>
    <edge id="e1" from="n1" to="n2" priority="1" numLanes="1" speed="13.9"/>
</edges>
